networks/opendss/CKT_317_00116.dss
! OpenDSS script generated from multiconductor network
Clear

New Circuit.mc_network basekv=12.0 pu=1.000000 angle=0.00 frequency=60.0 phases=3 Mvasc3=143993 Mvasc1=47997.6
~ bus1=-8888882129138.1.2.3

! Line codes
New LineCode.1000_CLP_3PH_12KV_3 nphases=3 units=km Rmatrix=[ 0.04395 | 0 0.04395 | 0 0 0.04395 ] Xmatrix=[ 0.066527 | 0 0.066527 | 0 0 0.066527 ] Cmatrix=[ 0 | 0 0 | 0 0 0 ]
New LineCode.1/0_JCN_1PH_12KV_1 nphases=1 units=km Rmatrix=[ 0.001219 ] Xmatrix=[ 0.000373 ] Cmatrix=[ 0 ]
New LineCode.2_CLP_1PH_12KV_1 nphases=1 units=km Rmatrix=[ 0.087448 ] Xmatrix=[ 0.018432 ] Cmatrix=[ 0 ]
New LineCode.1/0_CLP_3PH_12KV_3 nphases=3 units=km Rmatrix=[ 0.016159 | 0 0.016159 | 0 0 0.016159 ] Xmatrix=[ 0.004939 | 0 0.004939 | 0 0 0.004939 ] Cmatrix=[ 0 | 0 0 | 0 0 0 ]
New LineCode.750_CLP_3PH_12KV_3 nphases=3 units=km Rmatrix=[ 0.0299 | 0 0.0299 | 0 0 0.0299 ] Xmatrix=[ 0.036721 | 0 0.036721 | 0 0 0.036721 ] Cmatrix=[ 0 | 0 0 | 0 0 0 ]
New LineCode.2_JCN_2PH_12KV_2 nphases=2 units=km Rmatrix=[ 0.045489 | 0 0.045489 ] Xmatrix=[ 0.009588 | 0 0.009588 ] Cmatrix=[ 0 | 0 0 ]
New LineCode.1000_JCN_3PH_12KV_3 nphases=3 units=km Rmatrix=[ 0.000445 | 0 0.000445 | 0 0 0.000445 ] Xmatrix=[ 0.000673 | 0 0.000673 | 0 0 0.000673 ] Cmatrix=[ 0 | 0 0 | 0 0 0 ]
New LineCode.350_CLP_3PH_12KV_3 nphases=3 units=km Rmatrix=[ 0.131897 | 0 0.131897 | 0 0 0.131897 ] Xmatrix=[ 0.100214 | 0 0.100214 | 0 0 0.100214 ] Cmatrix=[ 0 | 0 0 | 0 0 0 ]
New LineCode.2_JCN_3PH_12KV_3 nphases=3 units=km Rmatrix=[ 0.241473 | 0 0.241473 | 0 0 0.241473 ] Xmatrix=[ 0.050898 | 0 0.050898 | 0 0 0.050898 ] Cmatrix=[ 0 | 0 0 | 0 0 0 ]
New LineCode.2_CLP_3PH_12KV_3 nphases=3 units=km Rmatrix=[ 0.461308 | 0 0.461308 | 0 0 0.461308 ] Xmatrix=[ 0.097235 | 0 0.097235 | 0 0 0.097235 ] Cmatrix=[ 0 | 0 0 | 0 0 0 ]
New LineCode.1/0_JCN_3PH_12KV_3 nphases=3 units=km Rmatrix=[ 0.0012 | 0 0.0012 | 0 0 0.0012 ] Xmatrix=[ 0.000367 | 0 0.000367 | 0 0 0.000367 ] Cmatrix=[ 0 | 0 0 | 0 0 0 ]
New LineCode.1/0_CLP_2PH_12KV_2 nphases=2 units=km Rmatrix=[ 0.012428 | 0 0.012428 ] Xmatrix=[ 0.003799 | 0 0.003799 ] Cmatrix=[ 0 | 0 0 ]
New LineCode.1/0_JCN_2PH_12KV_2 nphases=2 units=km Rmatrix=[ 0.003461 | 0 0.003461 ] Xmatrix=[ 0.001058 | 0 0.001058 ] Cmatrix=[ 0 | 0 0 ]
New LineCode.1/0_CLP_1PH_12KV_1 nphases=1 units=km Rmatrix=[ 0.075246 ] Xmatrix=[ 0.022999 ] Cmatrix=[ 0 ]
New LineCode.750_JCN_3PH_12KV_3 nphases=3 units=km Rmatrix=[ 0.025278 | 0 0.025278 | 0 0 0.025278 ] Xmatrix=[ 0.031045 | 0 0.031045 | 0 0 0.031045 ] Cmatrix=[ 0 | 0 0 | 0 0 0 ]
New LineCode.336_ACSR_3PH_336_ACSR_N_12KV_4 nphases=4 units=km Rmatrix=[ 0.195674 | 0 0.195674 | 0 0 0.195674 | 0 0 0 0.195674 ] Xmatrix=[ 0.390217 | 0 0.390217 | 0 0 0.390217 | 0 0 0 0.390217 ] Cmatrix=[ 0 | 0 0 | 0 0 0 | 0 0 0 0 ]
New LineCode.4_ACSR_2PH_12KV_2 nphases=2 units=km Rmatrix=[ 0.499272 | 0 0.499272 ] Xmatrix=[ 0.183204 | 0 0.183204 ] Cmatrix=[ 0 | 0 0 ]
New LineCode.336_ACSR_3PH_12KV_3 nphases=3 units=km Rmatrix=[ 0.023753 | 0 0.023753 | 0 0 0.023753 ] Xmatrix=[ 0.053193 | 0 0.053193 | 0 0 0.053193 ] Cmatrix=[ 0 | 0 0 | 0 0 0 ]
New LineCode.4/0_ACSR_3PH_12KV_3 nphases=3 units=km Rmatrix=[ 0.056236 | 0 0.056236 | 0 0 0.056236 ] Xmatrix=[ 0.079475 | 0 0.079475 | 0 0 0.079475 ] Cmatrix=[ 0 | 0 0 | 0 0 0 ]

! Lines
New Line.GS5169-2$00116 phases=3 Bus1=-8888882129138.1.2.3 Bus2=99083120.1.2.3 LineCode=1000_CLP_3PH_12KV_3 Length=0.2267 units=km
New Line.P5740313-2$218888417 phases=1 Bus1=218887426.1 Bus2=218888420.1 LineCode=1/0_JCN_1PH_12KV_1 Length=0.000553 units=km
New Line.P5740311-1$218888479 phases=1 Bus1=218887259.3 Bus2=218888482.3 LineCode=1/0_JCN_1PH_12KV_1 Length=0.001127 units=km
New Line.P5740317-1$218888747 phases=1 Bus1=218887815.2 Bus2=218888750.2 LineCode=1/0_JCN_1PH_12KV_1 Length=0.001418 units=km
New Line.224162493$224162468 phases=1 Bus1=224162495.2 Bus2=224162470.2 LineCode=1/0_JCN_1PH_12KV_1 Length=0.091382 units=km
New Line.231075641$P5758130-1 phases=1 Bus1=231075644.3 Bus2=231075101.3 LineCode=1/0_JCN_1PH_12KV_1 Length=0.002124 units=km
New Line.231075943$P5758121-1 phases=1 Bus1=231075946.2 Bus2=231075330.2 LineCode=1/0_JCN_1PH_12KV_1 Length=0.001462 units=km
New Line.231076195$P5758115-2 phases=1 Bus1=231076198.1 Bus2=231075407.1 LineCode=1/0_JCN_1PH_12KV_1 Length=0.001347 units=km
New Line.231076145$P5758116-1 phases=1 Bus1=231076148.1 Bus2=231075466.1 LineCode=1/0_JCN_1PH_12KV_1 Length=0.001684 units=km
New Line.238095708$P5751556-B phases=1 Bus1=238095711.2 Bus2=238228302.2 LineCode=1/0_JCN_1PH_12KV_1 Length=0.00406 units=km
New Line.ND98371016$V5184337 phases=1 Bus1=98371016.2 Bus2=40215291.2 LineCode=2_CLP_1PH_12KV_1 Length=0.004431 units=km
New Line.GS3543-1$ND42934276 phases=3 Bus1=42874681.1.2.3 Bus2=42934276.1.2.3 LineCode=1/0_CLP_3PH_12KV_3 Length=0.007754 units=km
New Line.ND98371016$ND98370992 phases=3 Bus1=98371016.1.2.3 Bus2=98370992.1.2.3 LineCode=750_CLP_3PH_12KV_3 Length=0.022682 units=km
New Line.190960413$P5520323-2 phases=2 Bus1=190960416.2.3 Bus2=155026813.2.3 LineCode=2_JCN_2PH_12KV_2 Length=0.002493 units=km
New Line.P5738870-1$207290104 phases=1 Bus1=207289685.1 Bus2=207290107.1 LineCode=1/0_JCN_1PH_12KV_1 Length=0.001455 units=km
New Line.ND100074907$GS5169-1 phases=3 Bus1=99083112.1.2.3 Bus2=100074907.1.2.3 LineCode=1000_CLP_3PH_12KV_3 Length=0.379514 units=km
New Line.ND100074907$ND102639704 phases=3 Bus1=100074907.1.2.3 Bus2=102639704.1.2.3 LineCode=1000_CLP_3PH_12KV_3 Length=0.523036 units=km
New Line.ND100074907$GS3445-3 phases=3 Bus1=100074907.1.2.3 Bus2=42857926.1.2.3 LineCode=1000_CLP_3PH_12KV_3 Length=0.069572 units=km
New Line.ND102639704$GS5176-1 phases=3 Bus1=102639704.1.2.3 Bus2=100075085.1.2.3 LineCode=1000_CLP_3PH_12KV_3 Length=0.486948 units=km
New Line.GS5412-3$ND102639704 phases=3 Bus1=102639704.1.2.3 Bus2=42871679.1.2.3 LineCode=1000_CLP_3PH_12KV_3 Length=0.06134 units=km
New Line.GS3445-2$ND42934196 phases=3 Bus1=42857910.1.2.3 Bus2=42934196.1.2.3 LineCode=750_CLP_3PH_12KV_3 Length=0.023717 units=km
New Line.ND42934196$ND100074508 phases=3 Bus1=42934196.1.2.3 Bus2=100074508.1.2.3 LineCode=750_CLP_3PH_12KV_3 Length=0.027546 units=km
New Line.GS5176-2$J353-1 phases=3 Bus1=100075093.1.2.3 Bus2=222188765.1.2.3 LineCode=1000_JCN_3PH_12KV_3 Length=0.24695 units=km
New Line.GS3445-1$ND42934186 phases=3 Bus1=42857918.1.2.3 Bus2=42934186.1.2.3 LineCode=350_CLP_3PH_12KV_3 Length=0.032815 units=km
New Line.ND100074508$V5186913 phases=1 Bus1=100074508.2 Bus2=100074495.2 LineCode=2_CLP_1PH_12KV_1 Length=0.150247 units=km
New Line.PME5112-2$GS5176-3 phases=3 Bus1=100075101.1.2.3 Bus2=100075212.1.2.3 LineCode=1000_CLP_3PH_12KV_3 Length=0.697265 units=km
New Line.ND42934186$ND152039423 phases=3 Bus1=42934186.1.2.3 Bus2=152039423.1.2.3 LineCode=350_CLP_3PH_12KV_3 Length=0.159841 units=km
New Line.ND100074508$ND98220554 phases=3 Bus1=100074508.1.2.3 Bus2=98220554.1.2.3 LineCode=1000_CLP_3PH_12KV_3 Length=0.406581 units=km
New Line.ND152039423$P5626620-1 phases=3 Bus1=152039423.1.2.3 Bus2=152039379.1.2.3 LineCode=2_JCN_3PH_12KV_3 Length=0.030395 units=km
New Line.ND98220554$GS6051-2 phases=3 Bus1=98220554.1.2.3 Bus2=208697140.1.2.3 LineCode=1000_JCN_3PH_12KV_3 Length=0.121716 units=km
New Line.GS3961-4$ND152039423 phases=3 Bus1=152039423.1.2.3 Bus2=42873477.1.2.3 LineCode=350_CLP_3PH_12KV_3 Length=0.060055 units=km
New Line.ND98220554$J910-4P phases=3 Bus1=98220554.1.2.3 Bus2=98220649.1.2.3 LineCode=1000_CLP_3PH_12KV_3 Length=0.045355 units=km
New Line.P5718639-2$208964100 phases=1 Bus1=208964103.1 Bus2=208963591.1 LineCode=1/0_JCN_1PH_12KV_1 Length=0.001114 units=km
New Line.PME6072-2$210550151 phases=1 Bus1=210549017.2 Bus2=210550154.2 LineCode=1/0_JCN_1PH_12KV_1 Length=0.001449 units=km
New Line.P5519321-B$215228602 phases=3 Bus1=151425739.1.2.3 Bus2=215228605.1.2.3 LineCode=2_CLP_3PH_12KV_3 Length=0.087154 units=km
New Line.222190356$P5752150-2 phases=1 Bus1=222190359.1 Bus2=222189418.1 LineCode=1/0_JCN_1PH_12KV_1 Length=0.004661 units=km
New Line.224162254$224162229 phases=1 Bus1=224162256.3 Bus2=224162231.3 LineCode=1/0_JCN_1PH_12KV_1 Length=0.062453 units=km
New Line.231075691$P5758128-2 phases=1 Bus1=231075694.3 Bus2=231074974.3 LineCode=1/0_JCN_1PH_12KV_1 Length=0.000648 units=km
New Line.231075666$P5758129-1 phases=1 Bus1=231075669.3 Bus2=231075033.3 LineCode=1/0_JCN_1PH_12KV_1 Length=0.002493 units=km
New Line.231075993$P5758119-2 phases=1 Bus1=231075996.2 Bus2=231075203.2 LineCode=1/0_JCN_1PH_12KV_1 Length=0.001343 units=km
New Line.231075968$P5758120-1 phases=1 Bus1=231075971.2 Bus2=231075262.2 LineCode=1/0_JCN_1PH_12KV_1 Length=0.001292 units=km
New Line.J353-2$PME6127-1 phases=3 Bus1=222188773.1.2.3 Bus2=222188912.1.2.3 LineCode=1000_JCN_3PH_12KV_3 Length=0.454554 units=km
New Line.ND99267145$PME5112-3 phases=3 Bus1=100075194.1.2.3 Bus2=99267145.1.2.3 LineCode=750_CLP_3PH_12KV_3 Length=0.010138 units=km
New Line.PME5112-1$J586-3P phases=3 Bus1=100075221.1.2.3 Bus2=199724033.1.2.3 LineCode=2_CLP_3PH_12KV_3 Length=0.113646 units=km
New Line.787E$ND99267145 phases=3 Bus1=99267145.1.2.3 Bus2=32444611.1.2.3 LineCode=750_CLP_3PH_12KV_3 Length=0.265389 units=km
New Line.P5770661-2$238228628 phases=1 Bus1=238228563.1 Bus2=238228631.1 LineCode=1/0_JCN_1PH_12KV_1 Length=0.000859 units=km
New Line.P5770662-B$238228737 phases=1 Bus1=238228120.1 Bus2=238228740.1 LineCode=1/0_JCN_1PH_12KV_1 Length=0.002261 units=km
New Line.P5770665-A$238229080 phases=1 Bus1=238229083.3 Bus2=238228907.3 LineCode=1/0_JCN_1PH_12KV_1 Length=0.002452 units=km
New Line.240129665$240129541 phases=1 Bus1=240129543.3 Bus2=240129667.3 LineCode=1/0_JCN_1PH_12KV_1 Length=0.389821 units=km
New Line.ND42934276$ND42954588 phases=3 Bus1=42934276.1.2.3 Bus2=42954588.1.2.3 LineCode=1/0_CLP_3PH_12KV_3 Length=0.024471 units=km
New Line.ND98371051$ND98370992 phases=3 Bus1=98370992.1.2.3 Bus2=98371051.1.2.3 LineCode=350_CLP_3PH_12KV_3 Length=0.385253 units=km
New Line.ND98371051$ND102004831 phases=3 Bus1=98371051.1.2.3 Bus2=102004831.1.2.3 LineCode=350_CLP_3PH_12KV_3 Length=0.550032 units=km
New Line.P5524010-B$P5524011-1 phases=3 Bus1=151426138.1.2.3 Bus2=13610546.1.2.3 LineCode=2_CLP_3PH_12KV_3 Length=0.111565 units=km
New Line.P5738875-2$207410787 phases=1 Bus1=207410273.2 Bus2=207410790.2 LineCode=1/0_JCN_1PH_12KV_1 Length=0.001587 units=km
New Line.207411300$P5738881-2 phases=1 Bus1=207411303.3 Bus2=207411003.3 LineCode=1/0_JCN_1PH_12KV_1 Length=0.001049 units=km
New Line.208963801$208963923 phases=1 Bus1=208963803.1 Bus2=208963925.1 LineCode=1/0_JCN_1PH_12KV_1 Length=0.048752 units=km
New Line.PME6072-3$210550121 phases=1 Bus1=210549026.1 Bus2=210550124.1 LineCode=1/0_JCN_1PH_12KV_1 Length=0.001445 units=km
New Line.PME6072-1$210550176 phases=1 Bus1=210549035.3 Bus2=210550179.3 LineCode=1/0_JCN_1PH_12KV_1 Length=0.001651 units=km
New Line.212663241$P5725099-2 phases=1 Bus1=212662672.1 Bus2=212663244.1 LineCode=1/0_JCN_1PH_12KV_1 Length=0.001679 units=km
New Line.PME5112-4$PME5452-2 phases=3 Bus1=100075203.1.2.3 Bus2=32510155.1.2.3 LineCode=750_CLP_3PH_12KV_3 Length=0.301745 units=km
New Line.J910-3P$P5483550-1 phases=3 Bus1=98220641.1.2.3 Bus2=153313793.1.2.3 LineCode=2_CLP_3PH_12KV_3 Length=0.101551 units=km
New Line.GS6051-1$J497-1P phases=3 Bus1=208697131.1.2.3 Bus2=208697321.1.2.3 LineCode=1000_JCN_3PH_12KV_3 Length=0.115163 units=km
New Line.GS6051-3$GS3448-4 phases=3 Bus1=208697149.1.2.3 Bus2=42874169.1.2.3 LineCode=1000_JCN_3PH_12KV_3 Length=0.342536 units=km
New Line.ND42953438$GS3961-3 phases=3 Bus1=42873469.1.2.3 Bus2=42953438.1.2.3 LineCode=1/0_CLP_3PH_12KV_3 Length=0.023525 units=km
New Line.P5323874-A$ND42953438 phases=3 Bus1=42953438.1.2.3 Bus2=151425409.1.2.3 LineCode=1/0_CLP_3PH_12KV_3 Length=0.112317 units=km
New Line.218888417$218888355 phases=1 Bus1=218888419.1 Bus2=218888357.1 LineCode=1/0_JCN_1PH_12KV_1 Length=0.088505 units=km
New Line.218888479$218888509 phases=1 Bus1=218888481.3 Bus2=218888511.3 LineCode=1/0_JCN_1PH_12KV_1 Length=0.106919 units=km
New Line.218888747$218888717 phases=1 Bus1=218888749.2 Bus2=218888719.2 LineCode=1/0_JCN_1PH_12KV_1 Length=0.075787 units=km
New Line.224162468$P5752183-1 phases=1 Bus1=224162471.2 Bus2=224161802.2 LineCode=1/0_JCN_1PH_12KV_1 Length=0.002834 units=km
New Line.P5758980-1$232757314 phases=1 Bus1=232756397.2 Bus2=232757317.2 LineCode=1/0_JCN_1PH_12KV_1 Length=0.002147 units=km
New Line.P5757982-1$232757458 phases=1 Bus1=232756533.2 Bus2=232757461.2 LineCode=1/0_JCN_1PH_12KV_1 Length=0.003019 units=km
New Line.P5757985-2$232757553 phases=1 Bus1=232756841.3 Bus2=232757556.3 LineCode=1/0_JCN_1PH_12KV_1 Length=0.002711 units=km
New Line.P5751555-2$238095655 phases=1 Bus1=238095024.2 Bus2=238095658.2 LineCode=1/0_JCN_1PH_12KV_1 Length=0.002282 units=km
New Line.ND42953438$P5323878-A phases=3 Bus1=42953438.1.2.3 Bus2=236554859.1.2.3 LineCode=1/0_CLP_3PH_12KV_3 Length=0.028547 units=km
New Line.PME6127-4$ND239556823 phases=3 Bus1=222188894.1.2.3 Bus2=239556823.1.2.3 LineCode=1/0_JCN_3PH_12KV_3 Length=0.115808 units=km
New Line.42933683$J910-2P phases=3 Bus1=98220657.1.2.3 Bus2=42933685.1.2.3 LineCode=1/0_CLP_3PH_12KV_3 Length=0.078474 units=km
New Line.GS3961-2$ND42934236 phases=3 Bus1=42873453.1.2.3 Bus2=42934236.1.2.3 LineCode=1/0_CLP_3PH_12KV_3 Length=0.015727 units=km
New Line.GS3961-1$ND180598824 phases=3 Bus1=42873461.1.2.3 Bus2=180598824.1.2.3 LineCode=1/0_CLP_3PH_12KV_3 Length=0.005922 units=km
New Line.PME6127-2$PME6126-2 phases=3 Bus1=222188903.1.2.3 Bus2=222189065.1.2.3 LineCode=1000_JCN_3PH_12KV_3 Length=0.45178 units=km
New Line.ND42954588$BS3496-1 phases=2 Bus1=42954588.2.3 Bus2=42874835.2.3 LineCode=1/0_CLP_2PH_12KV_2 Length=0.058122 units=km
New Line.ND42954588$ND42954816 phases=2 Bus1=42954588.2.3 Bus2=42954816.2.3 LineCode=1/0_CLP_2PH_12KV_2 Length=0.118447 units=km
New Line.ND98371051$ND98371089 phases=3 Bus1=98371051.1.2.3 Bus2=98371089.1.2.3 LineCode=350_CLP_3PH_12KV_3 Length=0.225065 units=km
New Line.RCS5210-1CL$ND102004831 phases=3 Bus1=102004831.1.2.3 Bus2=101953420.1.2.3 LineCode=350_CLP_3PH_12KV_3 Length=0.016936 units=km
New Line.ND102004831$V5324747PT phases=3 Bus1=102004831.1.2.3 Bus2=102004806.1.2.3 LineCode=350_CLP_3PH_12KV_3 Length=0.002008 units=km
New Line.207290142$207290104 phases=1 Bus1=207290106.1 Bus2=207290144.1 LineCode=1/0_JCN_1PH_12KV_1 Length=0.040862 units=km
New Line.PME5946-2$209654705 phases=3 Bus1=207146597.1.2.3 Bus2=209654708.1.2.3 LineCode=1/0_JCN_3PH_12KV_3 Length=0.00351 units=km
New Line.210550151$210550245 phases=1 Bus1=210550153.2 Bus2=210550247.2 LineCode=1/0_JCN_1PH_12KV_1 Length=0.0086 units=km
New Line.224162229$P5752173-1 phases=1 Bus1=224162232.3 Bus2=224161598.3 LineCode=1/0_JCN_1PH_12KV_1 Length=0.003583 units=km
New Line.238095681$P5751556-A phases=1 Bus1=238228310.2 Bus2=238095684.2 LineCode=1/0_JCN_1PH_12KV_1 Length=0.001574 units=km
New Line.238228628$238228737 phases=1 Bus1=238228739.1 Bus2=238228630.1 LineCode=1/0_JCN_1PH_12KV_1 Length=0.082948 units=km
New Line.P5769575-1$240129665 phases=1 Bus1=240129668.3 Bus2=240129445.3 LineCode=1/0_JCN_1PH_12KV_1 Length=0.001191 units=km
New Line.ND98371089$PME4857-2 phases=3 Bus1=98371089.1.2.3 Bus2=40178026.1.2.3 LineCode=350_CLP_3PH_12KV_3 Length=0.00761 units=km
New Line.P5520215-1$ND98371089 phases=3 Bus1=98371089.1.2.3 Bus2=40215057.1.2.3 LineCode=2_CLP_3PH_12KV_3 Length=0.05463 units=km
New Line.PME6127-3$ND222231987 phases=3 Bus1=222188885.1.2.3 Bus2=222231987.1.2.3 LineCode=1000_JCN_3PH_12KV_3 Length=0.052714 units=km
New Line.ND239556823$ND243182252 phases=2 Bus1=239556823.2.3 Bus2=243182252.2.3 LineCode=1/0_JCN_2PH_12KV_2 Length=0.0038 units=km
New Line.ND239556823$243182275 phases=1 Bus1=239556823.1 Bus2=243182277.1 LineCode=1/0_JCN_1PH_12KV_1 Length=0.048348 units=km
New Line.ND42934236$PMC3873-1 phases=3 Bus1=42934236.1.2.3 Bus2=42915421.1.2.3 LineCode=1/0_CLP_3PH_12KV_3 Length=0.005665 units=km
New Line.J910-1P$ND71048558 phases=3 Bus1=98220633.1.2.3 Bus2=71048558.1.2.3 LineCode=1/0_CLP_3PH_12KV_3 Length=0.150977 units=km
New Line.ND71048558$P5186902-A phases=3 Bus1=71048558.1.2.3 Bus2=151425305.1.2.3 LineCode=1/0_CLP_3PH_12KV_3 Length=0.139573 units=km
New Line.222190267$ND222231987 phases=1 Bus1=222231987.3 Bus2=222190270.3 LineCode=1/0_JCN_1PH_12KV_1 Length=0.012815 units=km
New Line.ND222231987$ND222231898 phases=3 Bus1=222231987.1.2.3 Bus2=222231898.1.2.3 LineCode=1000_JCN_3PH_12KV_3 Length=0.008263 units=km
New Line.ND42954816$BS3498-1 phases=1 Bus1=42954816.3 Bus2=42875173.3 LineCode=1/0_CLP_1PH_12KV_1 Length=0.216833 units=km
New Line.ND42954816$BS3497-1 phases=1 Bus1=42954816.2 Bus2=42875223.2 LineCode=2_CLP_1PH_12KV_1 Length=0.211921 units=km
New Line.215228602$J329-1P phases=3 Bus1=215228604.1.2.3 Bus2=67733567.1.2.3 LineCode=2_CLP_3PH_12KV_3 Length=0.044798 units=km
New Line.207410787$207410812 phases=1 Bus1=207410789.2 Bus2=207410814.2 LineCode=1/0_JCN_1PH_12KV_1 Length=0.136877 units=km
New Line.208963923$P5718638-2 phases=1 Bus1=208963926.1 Bus2=208963455.1 LineCode=1/0_JCN_1PH_12KV_1 Length=0.00098 units=km
New Line.PME5946-1$209654730 phases=3 Bus1=207146606.1.2.3 Bus2=209654733.1.2.3 LineCode=1/0_JCN_3PH_12KV_3 Length=0.002531 units=km
New Line.210550121$210550208 phases=1 Bus1=210550123.1 Bus2=210550210.1 LineCode=1/0_JCN_1PH_12KV_1 Length=0.009038 units=km
New Line.210550270$210550176 phases=1 Bus1=210550178.3 Bus2=210550272.3 LineCode=1/0_JCN_1PH_12KV_1 Length=0.008834 units=km
New Line.212663266$212663241 phases=1 Bus1=212663243.1 Bus2=212663268.1 LineCode=1/0_JCN_1PH_12KV_1 Length=0.097945 units=km
New Line.218888509$P5740312-2 phases=1 Bus1=218888512.3 Bus2=218887353.3 LineCode=1/0_JCN_1PH_12KV_1 Length=0.003465 units=km
New Line.P5740314-1$218888355 phases=1 Bus1=218888358.1 Bus2=218887502.1 LineCode=1/0_JCN_1PH_12KV_1 Length=0.001684 units=km
New Line.218888717$P5740318-2 phases=1 Bus1=218888720.2 Bus2=218887909.2 LineCode=1/0_JCN_1PH_12KV_1 Length=0.001294 units=km
New Line.232757314$232757289 phases=1 Bus1=232757316.2 Bus2=232757291.2 LineCode=1/0_JCN_1PH_12KV_1 Length=0.041883 units=km
New Line.232757458$232757433 phases=1 Bus1=232757460.2 Bus2=232757435.2 LineCode=1/0_JCN_1PH_12KV_1 Length=0.050902 units=km
New Line.232757553$232757578 phases=1 Bus1=232757555.3 Bus2=232757580.3 LineCode=1/0_JCN_1PH_12KV_1 Length=0.063688 units=km
New Line.238095681$238095655 phases=1 Bus1=238095657.2 Bus2=238095683.2 LineCode=1/0_JCN_1PH_12KV_1 Length=0.104637 units=km
New Line.240129597$P5770665-B phases=1 Bus1=238228899.3 Bus2=240129600.3 LineCode=1/0_JCN_1PH_12KV_1 Length=0.002886 units=km
New Line.BS3496-1$ND42935252 phases=2 Bus1=42874836.2.3 Bus2=42935252.2.3 LineCode=1/0_CLP_2PH_12KV_2 Length=0.006465 units=km
New Line.P5738871-2$207290142 phases=1 Bus1=207290145.1 Bus2=207289762.1 LineCode=1/0_JCN_1PH_12KV_1 Length=0.001099 units=km
New Line.P5738881-1$207411325 phases=1 Bus1=207410994.3 Bus2=207411328.3 LineCode=1/0_JCN_1PH_12KV_1 Length=0.000965 units=km
New Line.210550245$210550312 phases=1 Bus1=210550248.2 Bus2=210550315.2 LineCode=1/0_JCN_1PH_12KV_1 Length=0.022595 units=km
New Line.ND243182252$ND239556839 phases=2 Bus1=243182252.2.3 Bus2=239556839.2.3 LineCode=1/0_JCN_2PH_12KV_2 Length=0.003454 units=km
New Line.243182444$ND243182252 phases=1 Bus1=243182252.3 Bus2=243182446.3 LineCode=1/0_JCN_1PH_12KV_1 Length=0.138849 units=km
New Line.P5423598-1$J586-2P phases=3 Bus1=199724049.1.2.3 Bus2=32444803.1.2.3 LineCode=2_CLP_3PH_12KV_3 Length=0.093556 units=km
New Line.42933683$P5423580-1 phases=3 Bus1=42933686.1.2.3 Bus2=42874080.1.2.3 LineCode=1/0_CLP_3PH_12KV_3 Length=0.002968 units=km
New Line.ND71048558$P5483043-1 phases=3 Bus1=71048558.1.2.3 Bus2=98874058.1.2.3 LineCode=1/0_CLP_3PH_12KV_3 Length=0.02272 units=km
New Line.P5323874-B$P5186906-A phases=3 Bus1=151425427.1.2.3 Bus2=151425201.1.2.3 LineCode=1/0_CLP_3PH_12KV_3 Length=0.186457 units=km
New Line.P5323877-A$P5323878-B phases=3 Bus1=236554842.1.2.3 Bus2=151425617.1.2.3 LineCode=1/0_CLP_3PH_12KV_3 Length=0.133315 units=km
New Line.J497-2P$ND208964704 phases=3 Bus1=208697337.1.2.3 Bus2=208964704.1.2.3 LineCode=1000_JCN_3PH_12KV_3 Length=0.290408 units=km
New Line.222190470$ND222231898 phases=1 Bus1=222231898.2 Bus2=222190473.2 LineCode=1/0_JCN_1PH_12KV_1 Length=0.012931 units=km
New Line.ND222231898$ND222232004 phases=3 Bus1=222231898.1.2.3 Bus2=222232004.1.2.3 LineCode=1000_JCN_3PH_12KV_3 Length=0.002229 units=km
New Line.243182275$P5769570-2 phases=1 Bus1=243182278.1 Bus2=239556442.1 LineCode=1/0_JCN_1PH_12KV_1 Length=0.001468 units=km
New Line.209654705$213026492 phases=3 Bus1=209654707.1.2.3 Bus2=213026494.1.2.3 LineCode=1/0_JCN_3PH_12KV_3 Length=0.02263 units=km
New Line.P5752183-2$224162443 phases=1 Bus1=224161811.2 Bus2=224162446.2 LineCode=1/0_JCN_1PH_12KV_1 Length=0.002527 units=km
New Line.B5322246-2$ND42935252 phases=1 Bus1=42935252.3 Bus2=42875282.3 LineCode=1/0_CLP_1PH_12KV_1 Length=0.061455 units=km
New Line.B5324220-1$BS3498-1 phases=1 Bus1=42875174.3 Bus2=42875345.3 LineCode=1/0_CLP_1PH_12KV_1 Length=0.042945 units=km
New Line.B5322412-2$BS3497-1 phases=1 Bus1=42875224.2 Bus2=42875570.2 LineCode=2_CLP_1PH_12KV_1 Length=0.078182 units=km
New Line.B5322411-1$ND42935252 phases=1 Bus1=42935252.2 Bus2=42880143.2 LineCode=1/0_CLP_1PH_12KV_1 Length=0.114877 units=km
New Line.ND239556866$ND239556839 phases=1 Bus1=239556839.2 Bus2=239556866.2 LineCode=1/0_JCN_1PH_12KV_1 Length=0.004606 units=km
New Line.ND239556839$239557299 phases=1 Bus1=239556839.3 Bus2=239557301.3 LineCode=1/0_JCN_1PH_12KV_1 Length=0.343931 units=km
New Line.ND239556839$239557426 phases=1 Bus1=239556839.3 Bus2=239557428.3 LineCode=1/0_JCN_1PH_12KV_1 Length=0.546643 units=km
New Line.P5423586$J586-1P phases=1 Bus1=199724025.3 Bus2=99267158.3 LineCode=2_CLP_1PH_12KV_1 Length=0.001397 units=km
New Line.876E$GS5370-4 phases=3 Bus1=108219372.1.2.3 Bus2=108219230.1.2.3 LineCode=1000_CLP_3PH_12KV_3 Length=0.103881 units=km
New Line.J497-3P$207621065 phases=3 Bus1=208697329.1.2.3 Bus2=207621067.1.2.3 LineCode=1/0_JCN_3PH_12KV_3 Length=0.07777 units=km
New Line.ND208964704$PME6052-2 phases=3 Bus1=208964704.1.2.3 Bus2=208697712.1.2.3 LineCode=1000_JCN_3PH_12KV_3 Length=0.00573 units=km
New Line.ND208964704$ND208964719 phases=3 Bus1=208964704.1.2.3 Bus2=208964719.1.2.3 LineCode=1/0_JCN_3PH_12KV_3 Length=0.090137 units=km
New Line.207410812$P5738876-1 phases=1 Bus1=207410815.2 Bus2=207410196.2 LineCode=1/0_JCN_1PH_12KV_1 Length=0.00166 units=km
New Line.210550208$210550337 phases=1 Bus1=210550211.1 Bus2=210550340.1 LineCode=1/0_JCN_1PH_12KV_1 Length=0.04349 units=km
New Line.210550374$210550270 phases=1 Bus1=210550273.3 Bus2=210550377.3 LineCode=1/0_JCN_1PH_12KV_1 Length=0.008674 units=km
New Line.P5725100-1$212663266 phases=1 Bus1=212663269.1 Bus2=212662731.1 LineCode=1/0_JCN_1PH_12KV_1 Length=0.003065 units=km
New Line.209654730$218935719 phases=3 Bus1=209654732.1.2.3 Bus2=218935721.1.2.3 LineCode=1/0_JCN_3PH_12KV_3 Length=0.154506 units=km
New Line.P5752173-2$224162204 phases=1 Bus1=224161607.3 Bus2=224162207.3 LineCode=1/0_JCN_1PH_12KV_1 Length=0.002612 units=km
New Line.232757289$P5757981-2 phases=1 Bus1=232757292.2 Bus2=232756474.2 LineCode=1/0_JCN_1PH_12KV_1 Length=0.002831 units=km
New Line.232757433$P5757983-2 phases=1 Bus1=232757436.2 Bus2=232756610.2 LineCode=1/0_JCN_1PH_12KV_1 Length=0.003276 units=km
New Line.232757578$P5757986-1 phases=1 Bus1=232757581.3 Bus2=232756900.3 LineCode=1/0_JCN_1PH_12KV_1 Length=0.003538 units=km
New Line.240129624$240129597 phases=1 Bus1=240129599.3 Bus2=240129626.3 LineCode=1/0_JCN_1PH_12KV_1 Length=0.111684 units=km
New Line.P5769575-2$240129624 phases=1 Bus1=240129454.3 Bus2=240129627.3 LineCode=1/0_JCN_1PH_12KV_1 Length=0.000767 units=km
New Line.222190242$ND222232004 phases=1 Bus1=222232004.2 Bus2=222190245.2 LineCode=1/0_JCN_1PH_12KV_1 Length=0.01309 units=km
New Line.222190267$222190620 phases=1 Bus1=222190269.3 Bus2=222190622.3 LineCode=1/0_JCN_1PH_12KV_1 Length=0.103118 units=km
New Line.ND222232004$ND222231955 phases=3 Bus1=222232004.1.2.3 Bus2=222231955.1.2.3 LineCode=1000_JCN_3PH_12KV_3 Length=0.001558 units=km
New Line.PME6126-3$232509146 phases=3 Bus1=222189047.1.2.3 Bus2=232509149.1.2.3 LineCode=1/0_JCN_3PH_12KV_3 Length=0.002133 units=km
New Line.243182444$P5772703-2 phases=1 Bus1=243182447.3 Bus2=239283128.3 LineCode=1/0_JCN_1PH_12KV_1 Length=0.001955 units=km
New Line.239557192$ND239556866 phases=1 Bus1=239556866.2 Bus2=239557194.2 LineCode=1/0_JCN_1PH_12KV_1 Length=0.121199 units=km
New Line.239557269$ND239556866 phases=1 Bus1=239556866.2 Bus2=239557271.2 LineCode=1/0_JCN_1PH_12KV_1 Length=0.214129 units=km
New Line.GS3448-2$ND42934256 phases=3 Bus1=42874145.1.2.3 Bus2=42934256.1.2.3 LineCode=1/0_CLP_3PH_12KV_3 Length=0.08207 units=km
New Line.ND208964719$209947030 phases=3 Bus1=208964719.1.2.3 Bus2=209947025.1.2.3 LineCode=1/0_JCN_3PH_12KV_3 Length=0.094979 units=km
New Line.PME6125-2$PME6126-1 phases=3 Bus1=222189074.1.2.3 Bus2=222189206.1.2.3 LineCode=1000_JCN_3PH_12KV_3 Length=0.413559 units=km
New Line.222190495$222190470 phases=1 Bus1=222190472.2 Bus2=222190497.2 LineCode=1/0_JCN_1PH_12KV_1 Length=0.082885 units=km
New Line.ND222231955$ND222231822 phases=3 Bus1=222231955.1.2.3 Bus2=222231822.1.2.3 LineCode=1000_JCN_3PH_12KV_3 Length=0.005236 units=km
New Line.PME6126-4$239180488 phases=3 Bus1=222189056.1.2.3 Bus2=239180491.1.2.3 LineCode=1/0_JCN_3PH_12KV_3 Length=0.00194 units=km
New Line.239557299$P5769576-2 phases=1 Bus1=239557302.3 Bus2=239557050.3 LineCode=1/0_JCN_1PH_12KV_1 Length=0.001644 units=km
New Line.239557426$P5769578-1 phases=1 Bus1=239557429.3 Bus2=239557109.3 LineCode=1/0_JCN_1PH_12KV_1 Length=0.001139 units=km
New Line.P5186902-B$P5186901-1 phases=3 Bus1=151425323.1.2.3 Bus2=42874029.1.2.3 LineCode=1/0_CLP_3PH_12KV_3 Length=0.121206 units=km
New Line.ND42934256$ND42934821 phases=3 Bus1=42934256.1.2.3 Bus2=42934821.1.2.3 LineCode=1/0_CLP_3PH_12KV_3 Length=0.181874 units=km
New Line.GS3448-1$ND42953390 phases=3 Bus1=42874153.1.2.3 Bus2=42953390.1.2.3 LineCode=1000_CLP_3PH_12KV_3 Length=0.008603 units=km
New Line.PME4857-3$ND40216894 phases=1 Bus1=40178017.1 Bus2=40216894.1 LineCode=1/0_CLP_1PH_12KV_1 Length=0.007455 units=km
New Line.207411325$207411275 phases=1 Bus1=207411327.3 Bus2=207411277.3 LineCode=1/0_JCN_1PH_12KV_1 Length=0.083949 units=km
New Line.P5718638-1$208963955 phases=1 Bus1=208963446.1 Bus2=208963958.1 LineCode=1/0_JCN_1PH_12KV_1 Length=0.000964 units=km
New Line.P5186906-B$P5323872-A phases=3 Bus1=151425219.1.2.3 Bus2=151425097.1.2.3 LineCode=2_CLP_3PH_12KV_3 Length=0.11417 units=km
New Line.196289252$ND42934821 phases=3 Bus1=42934821.1.2.3 Bus2=196289254.1.2.3 LineCode=1/0_CLP_3PH_12KV_3 Length=0.324223 units=km
New Line.207621065$P5727778-1 phases=3 Bus1=207621068.1.2.3 Bus2=207621030.1.2.3 LineCode=1/0_JCN_3PH_12KV_3 Length=0.003114 units=km
New Line.ND42953390$ND208697053 phases=3 Bus1=42953390.1.2.3 Bus2=208697053.1.2.3 LineCode=1000_CLP_3PH_12KV_3 Length=0.0048 units=km
New Line.222190620$P5752156-1 phases=1 Bus1=222190623.3 Bus2=222189975.3 LineCode=1/0_JCN_1PH_12KV_1 Length=0.003476 units=km
New Line.222190292$ND222231822 phases=1 Bus1=222231822.1 Bus2=222190295.1 LineCode=1/0_JCN_1PH_12KV_1 Length=0.012441 units=km
New Line.222190242$222190545 phases=1 Bus1=222190244.2 Bus2=222190547.2 LineCode=1/0_JCN_1PH_12KV_1 Length=0.137005 units=km
New Line.ND224160726$232509146 phases=3 Bus1=232509148.1.2.3 Bus2=224160726.1.2.3 LineCode=1/0_JCN_3PH_12KV_3 Length=0.085881 units=km
New Line.P5769572-A$239557269 phases=1 Bus1=239557272.2 Bus2=239556626.2 LineCode=1/0_JCN_1PH_12KV_1 Length=0.001459 units=km
New Line.P5769571-2$239557192 phases=1 Bus1=239557195.2 Bus2=239556717.2 LineCode=1/0_JCN_1PH_12KV_1 Length=0.001776 units=km
New Line.P5769570-1$243182302 phases=1 Bus1=239556433.1 Bus2=243182305.1 LineCode=1/0_JCN_1PH_12KV_1 Length=0.00105 units=km
New Line.210550312$210550416 phases=1 Bus1=210550314.2 Bus2=210550418.2 LineCode=1/0_JCN_1PH_12KV_1 Length=0.040657 units=km
New Line.213026492$P5700784-A phases=3 Bus1=213026495.1.2.3 Bus2=213026416.1.2.3 LineCode=1/0_JCN_3PH_12KV_3 Length=0.011667 units=km
New Line.P5740314-2$218888330 phases=1 Bus1=218887511.1 Bus2=218888333.1 LineCode=1/0_JCN_1PH_12KV_1 Length=0.001236 units=km
New Line.P5740318-1$218888692 phases=1 Bus1=218887900.2 Bus2=218888695.2 LineCode=1/0_JCN_1PH_12KV_1 Length=0.001412 units=km
New Line.224162443$224162418 phases=1 Bus1=224162445.2 Bus2=224162420.2 LineCode=1/0_JCN_1PH_12KV_1 Length=0.052781 units=km
New Line.ND40216894$40193883 phases=1 Bus1=40216894.1 Bus2=40193885.1 LineCode=2_CLP_1PH_12KV_1 Length=0.136616 units=km
New Line.ND40216894$ND40216895 phases=1 Bus1=40216894.1 Bus2=40216895.1 LineCode=1/0_CLP_1PH_12KV_1 Length=0.218015 units=km
New Line.PME4857-1$ND40252620 phases=3 Bus1=40178035.1.2.3 Bus2=40252620.1.2.3 LineCode=2_CLP_3PH_12KV_3 Length=0.230036 units=km
New Line.P5519320-1$J329-2P phases=3 Bus1=67733583.1.2.3 Bus2=42917845.1.2.3 LineCode=2_CLP_3PH_12KV_3 Length=0.085361 units=km
New Line.P5323877-B$P5323876-1 phases=3 Bus1=151425635.1.2.3 Bus2=42873671.1.2.3 LineCode=1/0_CLP_3PH_12KV_3 Length=0.182809 units=km
...

! Switches
New Line.222190356 phases=1 Bus1=222190358.1 Bus2=222190359.1 switch=y r1=0.001 x1=0.001 r0=0.001 x0=0.001 Length=0.001 units=km
New Line.224162254 phases=1 Bus1=224162257.3 Bus2=224162256.3 switch=y r1=0.001 x1=0.001 r0=0.001 x0=0.001 Length=0.001 units=km
New Line.231075666 phases=1 Bus1=231075668.3 Bus2=231075669.3 switch=y r1=0.001 x1=0.001 r0=0.001 x0=0.001 Length=0.001 units=km
New Line.231075691 phases=1 Bus1=231075693.3 Bus2=231075694.3 switch=y r1=0.001 x1=0.001 r0=0.001 x0=0.001 Length=0.001 units=km
New Line.231075968 phases=1 Bus1=231075970.2 Bus2=231075971.2 switch=y r1=0.001 x1=0.001 r0=0.001 x0=0.001 Length=0.001 units=km
New Line.231075993 phases=1 Bus1=231075995.2 Bus2=231075996.2 switch=y r1=0.001 x1=0.001 r0=0.001 x0=0.001 Length=0.001 units=km
New Line.238229080 phases=1 Bus1=238229082.3 Bus2=238229083.3 switch=y r1=0.001 x1=0.001 r0=0.001 x0=0.001 Length=0.001 units=km
New Line.240129541 phases=1 Bus1=240129544.3 Bus2=240129543.3 switch=y r1=0.001 x1=0.001 r0=0.001 x0=0.001 Length=0.001 units=km
New Line.99083110$99083118 phases=3 Bus1=99083099.1.2.3 Bus2=99083098.1.2.3 switch=y r1=0.001 x1=0.001 r0=0.001 x0=0.001 Length=0.001 units=km
New Line.99083118$99083126 phases=3 Bus1=99083099.1.2.3 Bus2=99083105.1.2.3 switch=y r1=0.001 x1=0.001 r0=0.001 x0=0.001 Length=0.001 units=km
New Line.42857908$42857924 phases=3 Bus1=42857897.1.2.3 Bus2=42857891.1.2.3 switch=y r1=0.001 x1=0.001 r0=0.001 x0=0.001 Length=0.001 units=km
New Line.42857924$42857932 phases=3 Bus1=42857897.1.2.3 Bus2=42857903.1.2.3 switch=y r1=0.001 x1=0.001 r0=0.001 x0=0.001 Length=0.001 units=km
New Line.100075083$100075091 phases=3 Bus1=100075071.1.2.3 Bus2=100075072.1.2.3 switch=y r1=0.001 x1=0.001 r0=0.001 x0=0.001 Length=0.001 units=km
New Line.42857916$42857908 phases=3 Bus1=42857891.1.2.3 Bus2=42857890.1.2.3 switch=y r1=0.001 x1=0.001 r0=0.001 x0=0.001 Length=0.001 units=km
New Line.100075091$100075099 phases=3 Bus1=100075072.1.2.3 Bus2=100075078.1.2.3 switch=y r1=0.001 x1=0.001 r0=0.001 x0=0.001 Length=0.001 units=km
New Line.222188763$222188771 phases=3 Bus1=222188751.1.2.3 Bus2=222188752.1.2.3 switch=y r1=0.001 x1=0.001 r0=0.001 x0=0.001 Length=0.001 units=km
New Line.PME5112-3$PME5112-1 phases=3 Bus1=100075185.1.2.3 Bus2=100075186.1.2.3 switch=y r1=0.001 x1=0.001 r0=0.001 x0=0.001 Length=0.001 units=km
New Line.207411300 phases=1 Bus1=207411302.3 Bus2=207411303.3 switch=y r1=0.001 x1=0.001 r0=0.001 x0=0.001 Length=0.001 units=km
New Line.208963801 phases=1 Bus1=208963804.1 Bus2=208963803.1 switch=y r1=0.001 x1=0.001 r0=0.001 x0=0.001 Length=0.001 units=km
New Line.218888417 phases=1 Bus1=218888420.1 Bus2=218888419.1 switch=y r1=0.001 x1=0.001 r0=0.001 x0=0.001 Length=0.001 units=km
New Line.218888479 phases=1 Bus1=218888482.3 Bus2=218888481.3 switch=y r1=0.001 x1=0.001 r0=0.001 x0=0.001 Length=0.001 units=km
New Line.218888747 phases=1 Bus1=218888750.2 Bus2=218888749.2 switch=y r1=0.001 x1=0.001 r0=0.001 x0=0.001 Length=0.001 units=km
New Line.224162468 phases=1 Bus1=224162470.2 Bus2=224162471.2 switch=y r1=0.001 x1=0.001 r0=0.001 x0=0.001 Length=0.001 units=km
New Line.222188771$J353-3 phases=3 Bus1=222188752.1.2.3 Bus2=222188758.1.2.3 switch=y r1=0.001 x1=0.001 r0=0.001 x0=0.001 Length=0.001 units=km
New Line.208697128$208697137 phases=3 Bus1=208697111.1.2.3 Bus2=208697110.1.2.3 switch=y r1=0.001 x1=0.001 r0=0.001 x0=0.001 Length=0.001 units=km
New Line.208697137$208697146 phases=3 Bus1=208697111.1.2.3 Bus2=208697117.1.2.3 switch=y r1=0.001 x1=0.001 r0=0.001 x0=0.001 Length=0.001 units=km
New Line.42873467$42873475 phases=3 Bus1=42873446.1.2.3 Bus2=42873440.1.2.3 switch=y r1=0.001 x1=0.001 r0=0.001 x0=0.001 Length=0.001 units=km
New Line.98220638$98220646 phases=3 Bus1=98220650.1.2.3 Bus2=98220642.1.2.3 switch=y r1=0.001 x1=0.001 r0=0.001 x0=0.001 Length=0.001 units=km
New Line.208697146$GS6051-4 phases=3 Bus1=208697117.1.2.3 Bus2=208697123.1.2.3 switch=y r1=0.001 x1=0.001 r0=0.001 x0=0.001 Length=0.001 units=km
New Line.207290104 phases=1 Bus1=207290107.1 Bus2=207290106.1 switch=y r1=0.001 x1=0.001 r0=0.001 x0=0.001 Length=0.001 units=km
New Line.210550151 phases=1 Bus1=210550154.2 Bus2=210550153.2 switch=y r1=0.001 x1=0.001 r0=0.001 x0=0.001 Length=0.001 units=km
New Line.215228602 phases=3 Bus1=215228605.1.2.3 Bus2=215228604.1.2.3 switch=y r1=0.001 x1=0.001 r0=0.001 x0=0.001 Length=0.001 units=km
New Line.42873451$42873467 phases=3 Bus1=42873440.1.2.3 Bus2=42873434.1.2.3 switch=y r1=0.001 x1=0.001 r0=0.001 x0=0.001 Length=0.001 units=km
New Line.98220654$98220638 phases=3 Bus1=98220642.1.2.3 Bus2=98220658.1.2.3 switch=y r1=0.001 x1=0.001 r0=0.001 x0=0.001 Length=0.001 units=km
New Line.PME6127-4$PME6127-3 phases=3 Bus1=222188876.1.2.3 Bus2=222188877.1.2.3 switch=y r1=0.001 x1=0.001 r0=0.001 x0=0.001 Length=0.001 units=km
New Line.42873459$42873451 phases=3 Bus1=42873434.1.2.3 Bus2=42873433.1.2.3 switch=y r1=0.001 x1=0.001 r0=0.001 x0=0.001 Length=0.001 units=km
New Line.98220630$98220654 phases=3 Bus1=98220658.1.2.3 Bus2=98220634.1.2.3 switch=y r1=0.001 x1=0.001 r0=0.001 x0=0.001 Length=0.001 units=km
New Line.224162229 phases=1 Bus1=224162231.3 Bus2=224162232.3 switch=y r1=0.001 x1=0.001 r0=0.001 x0=0.001 Length=0.001 units=km
New Line.238228628 phases=1 Bus1=238228631.1 Bus2=238228630.1 switch=y r1=0.001 x1=0.001 r0=0.001 x0=0.001 Length=0.001 units=km
New Line.238228737 phases=1 Bus1=238228740.1 Bus2=238228739.1 switch=y r1=0.001 x1=0.001 r0=0.001 x0=0.001 Length=0.001 units=km
New Line.240129665 phases=1 Bus1=240129667.3 Bus2=240129668.3 switch=y r1=0.001 x1=0.001 r0=0.001 x0=0.001 Length=0.001 units=km
New Line.199724030$199724038 phases=3 Bus1=199724034.1.2.3 Bus2=199724042.1.2.3 switch=y r1=0.001 x1=0.001 r0=0.001 x0=0.001 Length=0.001 units=km
New Line.199724046$199724030 phases=3 Bus1=199724034.1.2.3 Bus2=199724050.1.2.3 switch=y r1=0.001 x1=0.001 r0=0.001 x0=0.001 Length=0.001 units=km
New Line.199724022$199724046 phases=3 Bus1=199724050.1.2.3 Bus2=199724026.1.2.3 switch=y r1=0.001 x1=0.001 r0=0.001 x0=0.001 Length=0.001 units=km
New Line.208697318$208697334 phases=3 Bus1=208697322.1.2.3 Bus2=208697338.1.2.3 switch=y r1=0.001 x1=0.001 r0=0.001 x0=0.001 Length=0.001 units=km
New Line.207410787 phases=1 Bus1=207410790.2 Bus2=207410789.2 switch=y r1=0.001 x1=0.001 r0=0.001 x0=0.001 Length=0.001 units=km
New Line.208963923 phases=1 Bus1=208963925.1 Bus2=208963926.1 switch=y r1=0.001 x1=0.001 r0=0.001 x0=0.001 Length=0.001 units=km
New Line.210550121 phases=1 Bus1=210550124.1 Bus2=210550123.1 switch=y r1=0.001 x1=0.001 r0=0.001 x0=0.001 Length=0.001 units=km
New Line.210550176 phases=1 Bus1=210550179.3 Bus2=210550178.3 switch=y r1=0.001 x1=0.001 r0=0.001 x0=0.001 Length=0.001 units=km
New Line.212663241 phases=1 Bus1=212663244.1 Bus2=212663243.1 switch=y r1=0.001 x1=0.001 r0=0.001 x0=0.001 Length=0.001 units=km
New Line.218888355 phases=1 Bus1=218888357.1 Bus2=218888358.1 switch=y r1=0.001 x1=0.001 r0=0.001 x0=0.001 Length=0.001 units=km
New Line.218888509 phases=1 Bus1=218888511.3 Bus2=218888512.3 switch=y r1=0.001 x1=0.001 r0=0.001 x0=0.001 Length=0.001 units=km
New Line.218888717 phases=1 Bus1=218888719.2 Bus2=218888720.2 switch=y r1=0.001 x1=0.001 r0=0.001 x0=0.001 Length=0.001 units=km
New Line.232757314 phases=1 Bus1=232757317.2 Bus2=232757316.2 switch=y r1=0.001 x1=0.001 r0=0.001 x0=0.001 Length=0.001 units=km
New Line.232757458 phases=1 Bus1=232757461.2 Bus2=232757460.2 switch=y r1=0.001 x1=0.001 r0=0.001 x0=0.001 Length=0.001 units=km
New Line.232757553 phases=1 Bus1=232757556.3 Bus2=232757555.3 switch=y r1=0.001 x1=0.001 r0=0.001 x0=0.001 Length=0.001 units=km
New Line.238095655 phases=1 Bus1=238095658.2 Bus2=238095657.2 switch=y r1=0.001 x1=0.001 r0=0.001 x0=0.001 Length=0.001 units=km
New Line.GS3448-3$42874167 phases=3 Bus1=42874138.1.2.3 Bus2=42874132.1.2.3 switch=y r1=0.001 x1=0.001 r0=0.001 x0=0.001 Length=0.001 units=km
New Line.42933683 phases=3 Bus1=42933685.1.2.3 Bus2=42933686.1.2.3 switch=y r1=0.001 x1=0.001 r0=0.001 x0=0.001 Length=0.001 units=km
New Line.208697334$208697326 phases=3 Bus1=208697338.1.2.3 Bus2=208697330.1.2.3 switch=y r1=0.001 x1=0.001 r0=0.001 x0=0.001 Length=0.001 units=km
New Line.207290142 phases=1 Bus1=207290144.1 Bus2=207290145.1 switch=y r1=0.001 x1=0.001 r0=0.001 x0=0.001 Length=0.001 units=km
New Line.209654705 phases=3 Bus1=209654708.1.2.3 Bus2=209654707.1.2.3 switch=y r1=0.001 x1=0.001 r0=0.001 x0=0.001 Length=0.001 units=km
New Line.210550245 phases=1 Bus1=210550247.2 Bus2=210550248.2 switch=y r1=0.001 x1=0.001 r0=0.001 x0=0.001 Length=0.001 units=km
New Line.238095681 phases=1 Bus1=238095684.2 Bus2=238095683.2 switch=y r1=0.001 x1=0.001 r0=0.001 x0=0.001 Length=0.001 units=km
New Line.207410812 phases=1 Bus1=207410814.2 Bus2=207410815.2 switch=y r1=0.001 x1=0.001 r0=0.001 x0=0.001 Length=0.001 units=km
New Line.209654730 phases=3 Bus1=209654733.1.2.3 Bus2=209654732.1.2.3 switch=y r1=0.001 x1=0.001 r0=0.001 x0=0.001 Length=0.001 units=km
New Line.210550208 phases=1 Bus1=210550210.1 Bus2=210550211.1 switch=y r1=0.001 x1=0.001 r0=0.001 x0=0.001 Length=0.001 units=km
New Line.210550270 phases=1 Bus1=210550272.3 Bus2=210550273.3 switch=y r1=0.001 x1=0.001 r0=0.001 x0=0.001 Length=0.001 units=km
New Line.212663266 phases=1 Bus1=212663268.1 Bus2=212663269.1 switch=y r1=0.001 x1=0.001 r0=0.001 x0=0.001 Length=0.001 units=km
New Line.5524010:P5524010-B phases=3 Bus1=151426139.1.2.3 Bus2=151426138.1.2.3 switch=y r1=0.001 x1=0.001 r0=0.001 x0=0.001 Length=0.001 units=km
New Line.5524010:P5524010-T phases=3 Bus1=151426139.1.2.3 Bus2=151426147.1.2.3 switch=y r1=0.001 x1=0.001 r0=0.001 x0=0.001 Length=0.001 units=km
New Line.5700783:PME5946-3 phases=3 Bus1=207146579.1.2.3 Bus2=207146570.1.2.3 switch=y r1=0.001 x1=0.001 r0=0.001 x0=0.001 Length=0.001 units=km
New Line.5506540:GS5169-2 phases=3 Bus1=99083120.1.2.3 Bus2=99083099.1.2.3 switch=y r1=0.001 x1=0.001 r0=0.001 x0=0.001 Length=0.001 units=km
New Line.5506540:GS5169-1 phases=3 Bus1=99083098.1.2.3 Bus2=99083112.1.2.3 switch=y r1=0.001 x1=0.001 r0=0.001 x0=0.001 Length=0.001 units=km
New Line.5322249:GS5176-1 phases=3 Bus1=100075085.1.2.3 Bus2=100075071.1.2.3 switch=y r1=0.001 x1=0.001 r0=0.001 x0=0.001 Length=0.001 units=km
New Line.5322249:GS5176-2 phases=3 Bus1=100075072.1.2.3 Bus2=100075093.1.2.3 switch=y r1=0.001 x1=0.001 r0=0.001 x0=0.001 Length=0.001 units=km
New Line.5322249:GS5176-3 phases=3 Bus1=100075078.1.2.3 Bus2=100075101.1.2.3 switch=y r1=0.001 x1=0.001 r0=0.001 x0=0.001 Length=0.001 units=km
New Line.5740353:J353-1 phases=3 Bus1=222188765.1.2.3 Bus2=222188751.1.2.3 switch=y r1=0.001 x1=0.001 r0=0.001 x0=0.001 Length=0.001 units=km
New Line.5718496:GS6051-2 phases=3 Bus1=208697140.1.2.3 Bus2=208697111.1.2.3 switch=y r1=0.001 x1=0.001 r0=0.001 x0=0.001 Length=0.001 units=km
New Line.5740353:J353-2 phases=3 Bus1=222188752.1.2.3 Bus2=222188773.1.2.3 switch=y r1=0.001 x1=0.001 r0=0.001 x0=0.001 Length=0.001 units=km
New Line.5323875:GS3961-4 phases=3 Bus1=42873477.1.2.3 Bus2=42873446.1.2.3 switch=y r1=0.001 x1=0.001 r0=0.001 x0=0.001 Length=0.001 units=km
New Line.5186910:J910-4 phases=3 Bus1=98220649.1.2.3 Bus2=98220650.1.2.3 switch=y r1=0.001 x1=0.001 r0=0.001 x0=0.001 Length=0.001 units=km
New Line.5718496:GS6051-1 phases=3 Bus1=208697110.1.2.3 Bus2=208697131.1.2.3 switch=y r1=0.001 x1=0.001 r0=0.001 x0=0.001 Length=0.001 units=km
New Line.5718496:GS6051-3 phases=3 Bus1=208697117.1.2.3 Bus2=208697149.1.2.3 switch=y r1=0.001 x1=0.001 r0=0.001 x0=0.001 Length=0.001 units=km
New Line.5740351:PME6127-1 phases=3 Bus1=222188912.1.2.3 Bus2=222188876.1.2.3 switch=y r1=0.001 x1=0.001 r0=0.001 x0=0.001 Length=0.001 units=km
New Line.5700783:PME5946-2 phases=3 Bus1=207146570.1.2.3 Bus2=207146597.1.2.3 switch=y r1=0.001 x1=0.001 r0=0.001 x0=0.001 Length=0.001 units=km
New Line.5323875:GS3961-3 phases=3 Bus1=42873440.1.2.3 Bus2=42873469.1.2.3 switch=y r1=0.001 x1=0.001 r0=0.001 x0=0.001 Length=0.001 units=km
New Line.5186910:J910-3 phases=3 Bus1=98220642.1.2.3 Bus2=98220641.1.2.3 switch=y r1=0.001 x1=0.001 r0=0.001 x0=0.001 Length=0.001 units=km
New Line.5323875:GS3961-2 phases=3 Bus1=42873434.1.2.3 Bus2=42873453.1.2.3 switch=y r1=0.001 x1=0.001 r0=0.001 x0=0.001 Length=0.001 units=km
New Line.5186910:J910-2 phases=3 Bus1=98220658.1.2.3 Bus2=98220657.1.2.3 switch=y r1=0.001 x1=0.001 r0=0.001 x0=0.001 Length=0.001 units=km
New Line.5718497:J497-1 phases=3 Bus1=208697321.1.2.3 Bus2=208697322.1.2.3 switch=y r1=0.001 x1=0.001 r0=0.001 x0=0.001 Length=0.001 units=km
New Line.5740351:PME6127-2 phases=3 Bus1=222188877.1.2.3 Bus2=222188903.1.2.3 switch=y r1=0.001 x1=0.001 r0=0.001 x0=0.001 Length=0.001 units=km
New Line.5323875:GS3961-1 phases=3 Bus1=42873433.1.2.3 Bus2=42873461.1.2.3 switch=y r1=0.001 x1=0.001 r0=0.001 x0=0.001 Length=0.001 units=km
New Line.5186910:J910-1 phases=3 Bus1=98220634.1.2.3 Bus2=98220633.1.2.3 switch=y r1=0.001 x1=0.001 r0=0.001 x0=0.001 Length=0.001 units=km
New Line.5524011:P5524011-1 phases=3 Bus1=13610546.1.2.3 Bus2=13610547.1.2.3 switch=y r1=0.001 x1=0.001 r0=0.001 x0=0.001 Length=0.001 units=km
New Line.5700783:PME5946-1 phases=3 Bus1=207146571.1.2.3 Bus2=207146606.1.2.3 switch=y r1=0.001 x1=0.001 r0=0.001 x0=0.001 Length=0.001 units=km
New Line.4358120E:PS1210 phases=3 Bus1=229888700.1.2.3 Bus2=229888701.1.2.3 switch=y r1=0.001 x1=0.001 r0=0.001 x0=0.001 Length=0.001 units=km
New Line.4415787E:787E phases=3 Bus1=32444611.1.2.3 Bus2=32444610.1.2.3 switch=y r1=0.001 x1=0.001 r0=0.001 x0=0.001 Length=0.001 units=km
New Line.5718497:J497-2 phases=3 Bus1=208697338.1.2.3 Bus2=208697337.1.2.3 switch=y r1=0.001 x1=0.001 r0=0.001 x0=0.001 Length=0.001 units=km
New Line.5740349:PME6126-2 phases=3 Bus1=222189065.1.2.3 Bus2=222189039.1.2.3 switch=y r1=0.001 x1=0.001 r0=0.001 x0=0.001 Length=0.001 units=km
New Line.4029744E:32445443 phases=2 Bus1=32445445.2.3 Bus2=32445446.2.3 switch=y r1=0.001 x1=0.001 r0=0.001 x0=0.001 Length=0.001 units=km
New Line.CAB_4029747E:4029747E phases=3 Bus1=32445436.1.2.3 Bus2=32445420.1.2.3 switch=y r1=0.001 x1=0.001 r0=0.001 x0=0.001 Length=0.001 units=km
New Line.CAB_4029750E:4029750E phases=3 Bus1=32445411.1.2.3 Bus2=32445395.1.2.3 switch=y r1=0.001 x1=0.001 r0=0.001 x0=0.001 Length=0.001 units=km
New Line.CAB_4114903E:4114903E phases=3 Bus1=32445386.1.2.3 Bus2=32445370.1.2.3 switch=y r1=0.001 x1=0.001 r0=0.001 x0=0.001 Length=0.001 units=km
New Line.CAB_4114906E:4114906E phases=3 Bus1=32445361.1.2.3 Bus2=32445345.1.2.3 switch=y r1=0.001 x1=0.001 r0=0.001 x0=0.001 Length=0.001 units=km
New Line.4029747E:32445418 phases=2 Bus1=32445420.2.3 Bus2=32445421.2.3 switch=y r1=0.001 x1=0.001 r0=0.001 x0=0.001 Length=0.001 units=km
New Line.4029750E:32445393 phases=2 Bus1=32445395.2.3 Bus2=32445396.2.3 switch=y r1=0.001 x1=0.001 r0=0.001 x0=0.001 Length=0.001 units=km
New Line.4114903E:32445368 phases=2 Bus1=32445370.2.3 Bus2=32445371.2.3 switch=y r1=0.001 x1=0.001 r0=0.001 x0=0.001 Length=0.001 units=km
New Line.4114906E:32445343 phases=2 Bus1=32445345.2.3 Bus2=32445346.2.3 switch=y r1=0.001 x1=0.001 r0=0.001 x0=0.001 Length=0.001 units=km
New Line.5725099:P5725099-1 phases=1 Bus1=212662663.1 Bus2=212662664.1 switch=y r1=0.001 x1=0.001 r0=0.001 x0=0.001 Length=0.001 units=km
New Line.5736885:P5736885-1 phases=3 Bus1=214733847.1.2.3 Bus2=214733848.1.2.3 switch=y r1=0.001 x1=0.001 r0=0.001 x0=0.001 Length=0.001 units=km
New Line.5758117:P5758117-1 phases=1 Bus1=231075534.1 Bus2=231075535.1 switch=y r1=0.001 x1=0.001 r0=0.001 x0=0.001 Length=0.001 units=km
New Line.5757980:P5757980-2 phases=1 Bus1=232756406.2 Bus2=232756398.2 switch=y r1=0.001 x1=0.001 r0=0.001 x0=0.001 Length=0.001 units=km
New Line.5757982:P5757982-2 phases=1 Bus1=232756542.2 Bus2=232756534.2 switch=y r1=0.001 x1=0.001 r0=0.001 x0=0.001 Length=0.001 units=km
New Line.5757985:P5757985-1 phases=1 Bus1=232756832.3 Bus2=232756833.3 switch=y r1=0.001 x1=0.001 r0=0.001 x0=0.001 Length=0.001 units=km
New Line.5751555:P5751555-1 phases=1 Bus1=238095015.2 Bus2=238095016.2 switch=y r1=0.001 x1=0.001 r0=0.001 x0=0.001 Length=0.001 units=km
New Line.5770662:P5770662-B phases=1 Bus1=238228112.1 Bus2=238228120.1 switch=y r1=0.001 x1=0.001 r0=0.001 x0=0.001 Length=0.001 units=km enabled=false
New Line.5770661:P5770661-2 phases=1 Bus1=238228555.1 Bus2=238228563.1 switch=y r1=0.001 x1=0.001 r0=0.001 x0=0.001 Length=0.001 units=km
New Line.5186913:GS3445-3 phases=3 Bus1=42857926.1.2.3 Bus2=42857897.1.2.3 switch=y r1=0.001 x1=0.001 r0=0.001 x0=0.001 Length=0.001 units=km
New Line.5186913:GS3445-2 phases=3 Bus1=42857891.1.2.3 Bus2=42857910.1.2.3 switch=y r1=0.001 x1=0.001 r0=0.001 x0=0.001 Length=0.001 units=km
New Line.5186913:GS3445-1 phases=3 Bus1=42857890.1.2.3 Bus2=42857918.1.2.3 switch=y r1=0.001 x1=0.001 r0=0.001 x0=0.001 Length=0.001 units=km
New Line.5423586:PME5112-2 phases=3 Bus1=100075212.1.2.3 Bus2=100075185.1.2.3 switch=y r1=0.001 x1=0.001 r0=0.001 x0=0.001 Length=0.001 units=km
New Line.5738875:P5738875-2 phases=1 Bus1=207410265.2 Bus2=207410273.2 switch=y r1=0.001 x1=0.001 r0=0.001 x0=0.001 Length=0.001 units=km
New Line.5725099:P5725099-2 phases=1 Bus1=212662664.1 Bus2=212662672.1 switch=y r1=0.001 x1=0.001 r0=0.001 x0=0.001 Length=0.001 units=km
New Line.5758130:P5758130-1 phases=1 Bus1=231075101.3 Bus2=231075102.3 switch=y r1=0.001 x1=0.001 r0=0.001 x0=0.001 Length=0.001 units=km
New Line.5758121:P5758121-1 phases=1 Bus1=231075330.2 Bus2=231075331.2 switch=y r1=0.001 x1=0.001 r0=0.001 x0=0.001 Length=0.001 units=km
New Line.5758115:P5758115-2 phases=1 Bus1=231075407.1 Bus2=231075399.1 switch=y r1=0.001 x1=0.001 r0=0.001 x0=0.001 Length=0.001 units=km
New Line.5758116:P5758116-1 phases=1 Bus1=231075466.1 Bus2=231075467.1 switch=y r1=0.001 x1=0.001 r0=0.001 x0=0.001 Length=0.001 units=km
New Line.5423586:PME5112-3 phases=3 Bus1=100075185.1.2.3 Bus2=100075194.1.2.3 switch=y r1=0.001 x1=0.001 r0=0.001 x0=0.001 Length=0.001 units=km
New Line.5626620:P5626620-1 phases=3 Bus1=152039379.1.2.3 Bus2=152039380.1.2.3 switch=y r1=0.001 x1=0.001 r0=0.001 x0=0.001 Length=0.001 units=km
New Line.5423586:PME5112-4 phases=3 Bus1=100075186.1.2.3 Bus2=100075203.1.2.3 switch=y r1=0.001 x1=0.001 r0=0.001 x0=0.001 Length=0.001 units=km
New Line.5423586:PME5112-1 phases=3 Bus1=100075186.1.2.3 Bus2=100075221.1.2.3 switch=y r1=0.001 x1=0.001 r0=0.001 x0=0.001 Length=0.001 units=km
New Line.5757980:P5757980-1 phases=1 Bus1=232756398.2 Bus2=232756397.2 switch=y r1=0.001 x1=0.001 r0=0.001 x0=0.001 Length=0.001 units=km
New Line.5757982:P5757982-1 phases=1 Bus1=232756534.2 Bus2=232756533.2 switch=y r1=0.001 x1=0.001 r0=0.001 x0=0.001 Length=0.001 units=km
New Line.5757985:P5757985-2 phases=1 Bus1=232756833.3 Bus2=232756841.3 switch=y r1=0.001 x1=0.001 r0=0.001 x0=0.001 Length=0.001 units=km
New Line.5751555:P5751555-2 phases=1 Bus1=238095016.2 Bus2=238095024.2 switch=y r1=0.001 x1=0.001 r0=0.001 x0=0.001 Length=0.001 units=km
New Line.5751556:P5751556-B phases=1 Bus1=238228302.2 Bus2=238228294.2 switch=y r1=0.001 x1=0.001 r0=0.001 x0=0.001 Length=0.001 units=km enabled=false
New Line.5520323:P5520323-2 phases=2 Bus1=155026813.2.3 Bus2=155026805.2.3 switch=y r1=0.001 x1=0.001 r0=0.001 x0=0.001 Length=0.001 units=km
New Line.5718639:P5718639-2 phases=1 Bus1=208963591.1 Bus2=208963583.1 switch=y r1=0.001 x1=0.001 r0=0.001 x0=0.001 Length=0.001 units=km
New Line.5423586:J586-3 phases=3 Bus1=199724033.1.2.3 Bus2=199724034.1.2.3 switch=y r1=0.001 x1=0.001 r0=0.001 x0=0.001 Length=0.001 units=km
New Line.5423584:PME5452-2 phases=3 Bus1=32510155.1.2.3 Bus2=32510128.1.2.3 switch=y r1=0.001 x1=0.001 r0=0.001 x0=0.001 Length=0.001 units=km enabled=false
New Line.5483550:P5483550-1 phases=3 Bus1=153313793.1.2.3 Bus2=153313794.1.2.3 switch=y r1=0.001 x1=0.001 r0=0.001 x0=0.001 Length=0.001 units=km
New Line.5752150:P5752150-2 phases=1 Bus1=222189418.1 Bus2=222189410.1 switch=y r1=0.001 x1=0.001 r0=0.001 x0=0.001 Length=0.001 units=km
New Line.5758128:P5758128-2 phases=1 Bus1=231074974.3 Bus2=231074966.3 switch=y r1=0.001 x1=0.001 r0=0.001 x0=0.001 Length=0.001 units=km
New Line.5758129:P5758129-1 phases=1 Bus1=231075033.3 Bus2=231075034.3 switch=y r1=0.001 x1=0.001 r0=0.001 x0=0.001 Length=0.001 units=km
New Line.5758119:P5758119-2 phases=1 Bus1=231075203.2 Bus2=231075195.2 switch=y r1=0.001 x1=0.001 r0=0.001 x0=0.001 Length=0.001 units=km
New Line.5758120:P5758120-1 phases=1 Bus1=231075262.2 Bus2=231075263.2 switch=y r1=0.001 x1=0.001 r0=0.001 x0=0.001 Length=0.001 units=km
New Line.5751556:P5751556-A phases=1 Bus1=238228294.2 Bus2=238228310.2 switch=y r1=0.001 x1=0.001 r0=0.001 x0=0.001 Length=0.001 units=km
New Line.5770665:P5770665-A phases=1 Bus1=238228907.3 Bus2=238228891.3 switch=y r1=0.001 x1=0.001 r0=0.001 x0=0.001 Length=0.001 units=km
New Line.5423584:PME5452-3 phases=3 Bus1=32510128.1.2.3 Bus2=32510137.1.2.3 switch=y r1=0.001 x1=0.001 r0=0.001 x0=0.001 Length=0.001 units=km
New Line.5186909:GS3448-4 phases=3 Bus1=42874169.1.2.3 Bus2=42874138.1.2.3 switch=y r1=0.001 x1=0.001 r0=0.001 x0=0.001 Length=0.001 units=km
New Line.5323874:P5323874-A phases=3 Bus1=151425409.1.2.3 Bus2=151425410.1.2.3 switch=y r1=0.001 x1=0.001 r0=0.001 x0=0.001 Length=0.001 units=km
New Line.5423586:J586-4 phases=3 Bus1=199724042.1.2.3 Bus2=199724041.1.2.3 switch=y r1=0.001 x1=0.001 r0=0.001 x0=0.001 Length=0.001 units=km
New Line.5423586:J586-2 phases=3 Bus1=199724050.1.2.3 Bus2=199724049.1.2.3 switch=y r1=0.001 x1=0.001 r0=0.001 x0=0.001 Length=0.001 units=km
New Line.5738881:P5738881-2 phases=1 Bus1=207411003.3 Bus2=207410995.3 switch=y r1=0.001 x1=0.001 r0=0.001 x0=0.001 Length=0.001 units=km
New Line.5752183:P5752183-1 phases=1 Bus1=224161802.2 Bus2=224161803.2 switch=y r1=0.001 x1=0.001 r0=0.001 x0=0.001 Length=0.001 units=km
New Line.5770665:P5770665-B phases=1 Bus1=238228891.3 Bus2=238228899.3 switch=y r1=0.001 x1=0.001 r0=0.001 x0=0.001 Length=0.001 units=km enabled=false
New Line.5323878:P5323878-A phases=3 Bus1=236554859.1.2.3 Bus2=236554843.1.2.3 switch=y r1=0.001 x1=0.001 r0=0.001 x0=0.001 Length=0.001 units=km
New Line.5323874:P5323874-T phases=3 Bus1=151425410.1.2.3 Bus2=151425418.1.2.3 switch=y r1=0.001 x1=0.001 r0=0.001 x0=0.001 Length=0.001 units=km
New Line.5323874:P5323874-B phases=3 Bus1=151425410.1.2.3 Bus2=151425427.1.2.3 switch=y r1=0.001 x1=0.001 r0=0.001 x0=0.001 Length=0.001 units=km
New Line.5423586:J586-1 phases=3 Bus1=199724026.1.2.3 Bus2=199724025.1.2.3 switch=y r1=0.001 x1=0.001 r0=0.001 x0=0.001 Length=0.001 units=km
New Line.243182275 phases=1 Bus1=243182277.1 Bus2=243182278.1 switch=y r1=0.001 x1=0.001 r0=0.001 x0=0.001 Length=0.001 units=km
New Line.PME6126-4$PME6126-3 phases=3 Bus1=222189039.1.2.3 Bus2=222189038.1.2.3 switch=y r1=0.001 x1=0.001 r0=0.001 x0=0.001 Length=0.001 units=km
New Line.222190267 phases=1 Bus1=222190270.3 Bus2=222190269.3 switch=y r1=0.001 x1=0.001 r0=0.001 x0=0.001 Length=0.001 units=km
New Line.232757289 phases=1 Bus1=232757291.2 Bus2=232757292.2 switch=y r1=0.001 x1=0.001 r0=0.001 x0=0.001 Length=0.001 units=km
New Line.232757433 phases=1 Bus1=232757435.2 Bus2=232757436.2 switch=y r1=0.001 x1=0.001 r0=0.001 x0=0.001 Length=0.001 units=km
New Line.232757578 phases=1 Bus1=232757580.3 Bus2=232757581.3 switch=y r1=0.001 x1=0.001 r0=0.001 x0=0.001 Length=0.001 units=km
New Line.240129597 phases=1 Bus1=240129600.3 Bus2=240129599.3 switch=y r1=0.001 x1=0.001 r0=0.001 x0=0.001 Length=0.001 units=km
New Line.PME4857-3$40178033 phases=3 Bus1=40178008.1.2.3 Bus2=40178009.1.2.3 switch=y r1=0.001 x1=0.001 r0=0.001 x0=0.001 Length=0.001 units=km
New Line.67733564$67733580 phases=3 Bus1=67733568.1.2.3 Bus2=67733584.1.2.3 switch=y r1=0.001 x1=0.001 r0=0.001 x0=0.001 Length=0.001 units=km
New Line.243182444 phases=1 Bus1=243182446.3 Bus2=243182447.3 switch=y r1=0.001 x1=0.001 r0=0.001 x0=0.001 Length=0.001 units=km
New Line.42874151$GS3448-2 phases=3 Bus1=42874126.1.2.3 Bus2=42874125.1.2.3 switch=y r1=0.001 x1=0.001 r0=0.001 x0=0.001 Length=0.001 units=km
New Line.PMC3873-1$ND42915400 phases=3 Bus1=42915406.1.2.3 Bus2=42915400.1.2.3 switch=y r1=0.001 x1=0.001 r0=0.001 x0=0.001 Length=0.001 units=km
New Line.207411325 phases=1 Bus1=207411328.3 Bus2=207411327.3 switch=y r1=0.001 x1=0.001 r0=0.001 x0=0.001 Length=0.001 units=km
New Line.210550312 phases=1 Bus1=210550315.2 Bus2=210550314.2 switch=y r1=0.001 x1=0.001 r0=0.001 x0=0.001 Length=0.001 units=km
New Line.213026492 phases=3 Bus1=213026494.1.2.3 Bus2=213026495.1.2.3 switch=y r1=0.001 x1=0.001 r0=0.001 x0=0.001 Length=0.001 units=km
New Line.224162443 phases=1 Bus1=224162446.2 Bus2=224162445.2 switch=y r1=0.001 x1=0.001 r0=0.001 x0=0.001 Length=0.001 units=km
New Line.222190470 phases=1 Bus1=222190473.2 Bus2=222190472.2 switch=y r1=0.001 x1=0.001 r0=0.001 x0=0.001 Length=0.001 units=km
New Line.239557299 phases=1 Bus1=239557301.3 Bus2=239557302.3 switch=y r1=0.001 x1=0.001 r0=0.001 x0=0.001 Length=0.001 units=km
New Line.239557426 phases=1 Bus1=239557428.3 Bus2=239557429.3 switch=y r1=0.001 x1=0.001 r0=0.001 x0=0.001 Length=0.001 units=km
New Line.ND42915400$PMC3873-2 phases=3 Bus1=42915400.1.2.3 Bus2=42915413.1.2.3 switch=y r1=0.001 x1=0.001 r0=0.001 x0=0.001 Length=0.001 units=km
New Line.207621065 phases=3 Bus1=207621067.1.2.3 Bus2=207621068.1.2.3 switch=y r1=0.001 x1=0.001 r0=0.001 x0=0.001 Length=0.001 units=km
New Line.222190242 phases=1 Bus1=222190245.2 Bus2=222190244.2 switch=y r1=0.001 x1=0.001 r0=0.001 x0=0.001 Length=0.001 units=km
New Line.222190620 phases=1 Bus1=222190622.3 Bus2=222190623.3 switch=y r1=0.001 x1=0.001 r0=0.001 x0=0.001 Length=0.001 units=km
New Line.232509146 phases=3 Bus1=232509149.1.2.3 Bus2=232509148.1.2.3 switch=y r1=0.001 x1=0.001 r0=0.001 x0=0.001 Length=0.001 units=km
New Line.239557192 phases=1 Bus1=239557194.2 Bus2=239557195.2 switch=y r1=0.001 x1=0.001 r0=0.001 x0=0.001 Length=0.001 units=km
New Line.239557269 phases=1 Bus1=239557271.2 Bus2=239557272.2 switch=y r1=0.001 x1=0.001 r0=0.001 x0=0.001 Length=0.001 units=km
New Line.67733580$67733572 phases=3 Bus1=67733584.1.2.3 Bus2=67733576.1.2.3 switch=y r1=0.001 x1=0.001 r0=0.001 x0=0.001 Length=0.001 units=km
New Line.210550337 phases=1 Bus1=210550340.1 Bus2=210550339.1 switch=y r1=0.001 x1=0.001 r0=0.001 x0=0.001 Length=0.001 units=km
New Line.210550374 phases=1 Bus1=210550377.3 Bus2=210550376.3 switch=y r1=0.001 x1=0.001 r0=0.001 x0=0.001 Length=0.001 units=km
New Line.108219220$108219228 phases=3 Bus1=108219199.1.2.3 Bus2=108219193.1.2.3 switch=y r1=0.001 x1=0.001 r0=0.001 x0=0.001 Length=0.001 units=km
New Line.PME6052-4$PME6052-3 phases=3 Bus1=208697686.1.2.3 Bus2=208697685.1.2.3 switch=y r1=0.001 x1=0.001 r0=0.001 x0=0.001 Length=0.001 units=km
New Line.209947030 phases=3 Bus1=209947025.1.2.3 Bus2=209947033.1.2.3 switch=y r1=0.001 x1=0.001 r0=0.001 x0=0.001 Length=0.001 units=km
New Line.222190495 phases=1 Bus1=222190497.2 Bus2=222190498.2 switch=y r1=0.001 x1=0.001 r0=0.001 x0=0.001 Length=0.001 units=km
New Line.239180488 phases=3 Bus1=239180491.1.2.3 Bus2=239180490.1.2.3 switch=y r1=0.001 x1=0.001 r0=0.001 x0=0.001 Length=0.001 units=km
New Line.218935719 phases=3 Bus1=218935721.1.2.3 Bus2=218935722.1.2.3 switch=y r1=0.001 x1=0.001 r0=0.001 x0=0.001 Length=0.001 units=km
New Line.224162204 phases=1 Bus1=224162207.3 Bus2=224162206.3 switch=y r1=0.001 x1=0.001 r0=0.001 x0=0.001 Length=0.001 units=km
New Line.240129624 phases=1 Bus1=240129627.3 Bus2=240129626.3 switch=y r1=0.001 x1=0.001 r0=0.001 x0=0.001 Length=0.001 units=km
New Line.108219204$108219220 phases=3 Bus1=108219193.1.2.3 Bus2=108219187.1.2.3 switch=y r1=0.001 x1=0.001 r0=0.001 x0=0.001 Length=0.001 units=km
New Line.196289252 phases=3 Bus1=196289254.1.2.3 Bus2=196289255.1.2.3 switch=y r1=0.001 x1=0.001 r0=0.001 x0=0.001 Length=0.001 units=km
...

! Loads
New Load.5322415 Bus1=-99999942880072.3.0 phases=1 kV=0.069282 kW=0 kvar=0 model=1
New Load.5498602 Bus1=-99999940192071.3.0 phases=1 kV=0.069282 kW=0 kvar=0 model=1
New Load.5478230 Bus1=-99999940175684.1.0 phases=1 kV=0.069282 kW=0 kvar=0 model=1
New Load.5739062 Bus1=-999999210549857.3.0 phases=1 kV=0.069282 kW=0 kvar=0 model=1
New Load.5324223 Bus1=-99999942875418.2.0 phases=1 kV=0.069282 kW=0 kvar=0 model=1
New Load.4114906E_0 Bus1=-99999932445346.2.0 phases=1 kV=0.069282 kW=0 kvar=0 model=1
New Load.4114906E_1 Bus1=-99999932445346.3.0 phases=1 kV=0.069282 kW=0 kvar=0 model=1
New Load.5769575 Bus1=-999999240129446.3.0 phases=1 kV=0.069282 kW=0 kvar=0 model=1
New Load.5752173 Bus1=-999999224161599.3.0 phases=1 kV=0.069282 kW=0 kvar=0 model=1
New Load.5520215_0 Bus1=-99999940215058.1.0 phases=1 kV=0.159926 kW=0 kvar=0 model=1
New Load.5520215_1 Bus1=-99999940215058.2.0 phases=1 kV=0.159926 kW=0 kvar=0 model=1
New Load.5520215_2 Bus1=-99999940215058.3.0 phases=1 kV=0.159926 kW=0 kvar=0 model=1
New Load.5186913 Bus1=-999999100074495.2.0 phases=1 kV=0.069282 kW=0 kvar=0 model=1
New Load.4114903E_0 Bus1=-99999932445371.2.0 phases=1 kV=0.069282 kW=0 kvar=0 model=1
New Load.4114903E_1 Bus1=-99999932445371.3.0 phases=1 kV=0.069282 kW=0 kvar=0 model=1
New Load.5738881 Bus1=-999999207410995.3.0 phases=1 kV=0.069282 kW=0 kvar=0 model=1
New Load.5752183 Bus1=-999999224161803.2.0 phases=1 kV=0.069282 kW=0 kvar=0 model=1
New Load.5770665 Bus1=-999999238228890.3.0 phases=1 kV=0.069282 kW=0 kvar=0 model=1
New Load.5752151 Bus1=-999999222189646.2.0 phases=1 kV=0.069282 kW=0 kvar=0 model=1
New Load.5769572 Bus1=-999999239556609.2.0 phases=1 kV=0.069282 kW=0 kvar=0 model=1
New Load.5323872_0 Bus1=-999999151425106.1.0 phases=1 kV=0.069282 kW=0 kvar=0 model=1
New Load.5323872_1 Bus1=-999999151425106.2.0 phases=1 kV=0.069282 kW=0 kvar=0 model=1
New Load.5323872_2 Bus1=-999999151425106.3.0 phases=1 kV=0.069282 kW=0 kvar=0 model=1
New Load.5739151_0 Bus1=-999999209947049.1.0 phases=1 kV=0.159926 kW=0 kvar=0 model=1
New Load.5739151_1 Bus1=-999999209947049.2.0 phases=1 kV=0.159926 kW=0 kvar=0 model=1
New Load.5739151_2 Bus1=-999999209947049.3.0 phases=1 kV=0.159926 kW=0 kvar=0 model=1
New Load.5324747 Bus1=-999999102004806.2.0 phases=1 kV=0.069282 kW=0 kvar=0 model=1
New Load.5524011_0 Bus1=-99999913610547.1.0 phases=1 kV=0.069282 kW=0 kvar=0 model=1
New Load.5524011_1 Bus1=-99999913610547.2.0 phases=1 kV=0.069282 kW=0 kvar=0 model=1
New Load.5524011_2 Bus1=-99999913610547.3.0 phases=1 kV=0.069282 kW=0 kvar=0 model=1
New Load.5752149 Bus1=-999999222189478.1.0 phases=1 kV=0.069282 kW=0 kvar=0 model=1
New Load.5718503_0 Bus1=-999999208697642.1.0 phases=1 kV=0.069282 kW=0 kvar=0 model=1
New Load.5718503_1 Bus1=-999999208697642.2.0 phases=1 kV=0.069282 kW=0 kvar=0 model=1
New Load.5770664 Bus1=-999999238228803.3.0 phases=1 kV=0.069282 kW=0 kvar=0 model=1
New Load.4662131E_0 Bus1=-99999932444776.1.2 phases=1 kV=0.069282 kW=0 kvar=0 model=1
New Load.4662131E_1 Bus1=-99999932444776.2.3 phases=1 kV=0.069282 kW=0 kvar=0 model=1
New Load.4662131E_2 Bus1=-99999932444776.3.1 phases=1 kV=0.069282 kW=0 kvar=0 model=1
New Load.5740319 Bus1=-999999218887985.2.0 phases=1 kV=0.069282 kW=0 kvar=0 model=1
...